examples/DynaWaltz/Nordic_vsc/reference/outputs/finalState/outputIIDM.xml
<?xml version="1.0" encoding="UTF-8"?>
<iidm:network xmlns:iidm="http://www.powsybl.org/schema/iidm/1_4" id="Nordic32_corrige" caseDate="2019-07-30T16:39:00+02:00" forecastDistance="0" sourceFormat="NF">
    <iidm:substation id="_19fe9db0-63e5-4f87-a503-0867c0a01369" country="FR" tso="RTE">
        <iidm:voltageLevel id="1011_130" nominalV="130" highVoltageLimit="136.5" topologyKind="BUS_BREAKER">
            <iidm:busBreakerTopology>
                <iidm:bus id="1011_131" v="139.75119072771344" angle="55.641591131029713"/>
            </iidm:busBreakerTopology>
        </iidm:voltageLevel>
        <iidm:voltageLevel id="4011_400" nominalV="400" highVoltageLimit="420" topologyKind="BUS_BREAKER">
            <iidm:busBreakerTopology>
                <iidm:bus id="4011_401" v="413.46166227077993" angle="54.990936059710577"/>
            </iidm:busBreakerTopology>
        </iidm:voltageLevel>
        <iidm:voltageLevel id="B11___20" nominalV="20" highVoltageLimit="21" topologyKind="BUS_BREAKER">
            <iidm:busBreakerTopology>
                <iidm:bus id="B11___21" v="20.301793111146999" angle="52.876197351931275"/>
            </iidm:busBreakerTopology>
            <iidm:load id="11_1" loadType="UNDEFINED" p0="199.99400329589844" q0="68.7958984375" bus="B11___21" connectableBus="B11___21" p="202.49246955158958" q="70.525529101356881"/>
        </iidm:voltageLevel>
        <iidm:voltageLevel id="BG09__15" nominalV="15" highVoltageLimit="15.750001907348633" topologyKind="BUS_BREAKER">
            <iidm:busBreakerTopology>
                <iidm:bus id="BG09__11" v="15.181269977080747" angle="60.175359388664731"/>
            </iidm:busBreakerTopology>
            <iidm:generator id="g09" energySource="HYDRO" minP="0" maxP="9999" voltageRegulatorOn="true" targetP="668.5" targetV="14.981999397277832" targetQ="201.25199890136719" bus="BG09__11" connectableBus="BG09__11" p="-600.20100408556368" q="-213.74811363760821">
                <iidm:property name="genreCvg" value="AUTRE"/>
                <iidm:reactiveCapabilityCurve>
                    <iidm:point p="0" minQ="-1000" maxQ="1000"/>
                    <iidm:point p="9999" minQ="-1000" maxQ="1000"/>
                </iidm:reactiveCapabilityCurve>
            </iidm:generator>
        </iidm:voltageLevel>
        <iidm:twoWindingsTransformer id="Tr1011-4011" r="0" x="1.3519998788833618" g="0" b="0" ratedU1="400" ratedU2="130" bus1="4011_401" connectableBus1="4011_401" voltageLevelId1="4011_400" bus2="1011_131" connectableBus2="1011_131" voltageLevelId2="1011_130" p1="-166.03235728489508" q1="178.40330981215089" p2="166.03235728489395" q2="-174.38972230897224">
            <iidm:ratioTapChanger lowTapPosition="0" tapPosition="0" loadTapChangingCapabilities="false">
                <iidm:step r="0" x="0" g="0" b="0" rho="1.0526316165924072"/>
                <iidm:step r="0" x="0" g="0" b="0" rho="1.0416667461395264"/>
                <iidm:step r="0" x="0" g="0" b="0" rho="1.0309277772903442"/>
                <iidm:step r="0" x="0" g="0" b="0" rho="1.0204081535339355"/>
                <iidm:step r="0" x="0" g="0" b="0" rho="1.0101009607315063"/>
                <iidm:step r="0" x="0" g="0" b="0" rho="1"/>
                <iidm:step r="0" x="0" g="0" b="0" rho="0.99009901285171509"/>
                <iidm:step r="0" x="0" g="0" b="0" rho="0.98039215803146362"/>
                <iidm:step r="0" x="0" g="0" b="0" rho="0.97087383270263672"/>
                <iidm:step r="0" x="0" g="0" b="0" rho="0.96153849363327026"/>
                <iidm:step r="0" x="0" g="0" b="0" rho="0.95238101482391357"/>
            </iidm:ratioTapChanger>
            <iidm:currentLimits1 permanentLimit="5551.43994140625"/>
            <iidm:currentLimits2 permanentLimit="5551.43994140625"/>
        </iidm:twoWindingsTransformer>
        <iidm:twoWindingsTransformer id="Tr11-1011" r="0" x="0.10000003129243851" g="0" b="0" ratedU1="130" ratedU2="20" bus1="1011_131" connectableBus1="1011_131" voltageLevelId1="1011_130" bus2="B11___21" connectableBus2="B11___21" voltageLevelId2="B11___20" p1="202.49244119726004" q1="81.680598376163843" p2="-202.49244119725978" q2="-70.525527429668173">
            <iidm:ratioTapChanger lowTapPosition="0" tapPosition="24" targetDeadband="0" loadTapChangingCapabilities="true" regulating="true" targetV="20">
                <iidm:terminalRef id="Tr11-1011" side="TWO"/>
                <iidm:step r="0" x="0" g="0" b="0" rho="1.25"/>
                <iidm:step r="0" x="0" g="0" b="0" rho="1.2345678806304932"/>
                <iidm:step r="0" x="0" g="0" b="0" rho="1.2195122241973877"/>
                <iidm:step r="0" x="0" g="0" b="0" rho="1.2048193216323853"/>
                <iidm:step r="0" x="0" g="0" b="0" rho="1.1904761791229248"/>
                <iidm:step r="0" x="0" g="0" b="0" rho="1.1764705181121826"/>
                <iidm:step r="0" x="0" g="0" b="0" rho="1.1627906560897827"/>
                <iidm:step r="0" x="0" g="0" b="0" rho="1.1494252681732178"/>
                <iidm:step r="0" x="0" g="0" b="0" rho="1.1363636255264282"/>
                <iidm:step r="0" x="0" g="0" b="0" rho="1.1235954761505127"/>
                <iidm:step r="0" x="0" g="0" b="0" rho="1.1111111640930176"/>
                <iidm:step r="0" x="0" g="0" b="0" rho="1.0989010334014893"/>
                <iidm:step r="0" x="0" g="0" b="0" rho="1.0869565010070801"/>
                <iidm:step r="0" x="0" g="0" b="0" rho="1.0752688646316528"/>
                <iidm:step r="0" x="0" g="0" b="0" rho="1.063829779624939"/>
                <iidm:step r="0" x="0" g="0" b="0" rho="1.0526316165924072"/>
                <iidm:step r="0" x="0" g="0" b="0" rho="1.0416667461395264"/>
                <iidm:step r="0" x="0" g="0" b="0" rho="1.0309277772903442"/>
                <iidm:step r="0" x="0" g="0" b="0" rho="1.0204081535339355"/>
                <iidm:step r="0" x="0" g="0" b="0" rho="1.0101009607315063"/>
                <iidm:step r="0" x="0" g="0" b="0" rho="1"/>
                <iidm:step r="0" x="0" g="0" b="0" rho="0.99009901285171509"/>
                <iidm:step r="0" x="0" g="0" b="0" rho="0.98039215803146362"/>
                <iidm:step r="0" x="0" g="0" b="0" rho="0.97087383270263672"/>
                <iidm:step r="0" x="0" g="0" b="0" rho="0.96153849363327026"/>
                <iidm:step r="0" x="0" g="0" b="0" rho="0.95238101482391357"/>
                <iidm:step r="0" x="0" g="0" b="0" rho="0.94339627027511597"/>
                <iidm:step r="0" x="0" g="0" b="0" rho="0.93457937240600586"/>
                <iidm:step r="0" x="0" g="0" b="0" rho="0.92592591047286987"/>
                <iidm:step r="0" x="0" g="0" b="0" rho="0.91743117570877075"/>
                <iidm:step r="0" x="0" g="0" b="0" rho="0.90909087657928467"/>
                <iidm:step r="0" x="0" g="0" b="0" rho="0.90090090036392212"/>
                <iidm:step r="0" x="0" g="0" b="0" rho="0.8928571343421936"/>
            </iidm:ratioTapChanger>
            <iidm:currentLimits1 permanentLimit="11547"/>
            <iidm:currentLimits2 permanentLimit="11547"/>
        </iidm:twoWindingsTransformer>
        <iidm:twoWindingsTransformer id="Tr4011-g9" r="0" x="0.033750001341104507" g="0" b="0" ratedU1="400" ratedU2="15" bus1="4011_401" connectableBus1="4011_401" voltageLevelId1="4011_400" bus2="BG09__11" connectableBus2="BG09__11" voltageLevelId2="BG09__15" p1="-600.20081071734285" q1="-154.30412340921703" p2="600.20081071734376" q2="213.74811363760821">
            <iidm:ratioTapChanger lowTapPosition="0" tapPosition="10" loadTapChangingCapabilities="false">
                <iidm:step r="0" x="0" g="0" b="0" rho="1.0526316165924072"/>
                <iidm:step r="0" x="0" g="0" b="0" rho="1.0416667461395264"/>
                <iidm:step r="0" x="0" g="0" b="0" rho="1.0309277772903442"/>
                <iidm:step r="0" x="0" g="0" b="0" rho="1.0204081535339355"/>
                <iidm:step r="0" x="0" g="0" b="0" rho="1.0101009607315063"/>
                <iidm:step r="0" x="0" g="0" b="0" rho="1"/>
                <iidm:step r="0" x="0" g="0" b="0" rho="0.99009901285171509"/>
                <iidm:step r="0" x="0" g="0" b="0" rho="0.98039215803146362"/>
                <iidm:step r="0" x="0" g="0" b="0" rho="0.97087383270263672"/>
                <iidm:step r="0" x="0" g="0" b="0" rho="0.96153849363327026"/>
                <iidm:step r="0" x="0" g="0" b="0" rho="0.95238101482391357"/>
            </iidm:ratioTapChanger>
            <iidm:currentLimits1 permanentLimit="38490"/>
            <iidm:currentLimits2 permanentLimit="38490"/>
        </iidm:twoWindingsTransformer>
    </iidm:substation>
    <iidm:substation id="_2733fb31-de68-473c-bbb7-234a34f4d82f" country="FR" tso="RTE">
        <iidm:voltageLevel id="1012_130" nominalV="130" highVoltageLimit="136.5" topologyKind="BUS_BREAKER">
            <iidm:busBreakerTopology>
                <iidm:bus id="1012_131" v="140.0383943760863" angle="58.608768636887497"/>
            </iidm:busBreakerTopology>
        </iidm:voltageLevel>
        <iidm:voltageLevel id="4012_400" nominalV="400" highVoltageLimit="420" topologyKind="BUS_BREAKER">
            <iidm:busBreakerTopology>
                <iidm:bus id="4012_401" v="414.19100623585149" angle="56.576739276134887"/>
            </iidm:busBreakerTopology>
            <iidm:shunt id="4012-Ind" sectionCount="1" voltageRegulatorOn="false" bus="4012_401" connectableBus="4012_401" q="107.22136613258262">
                <iidm:property name="qMax" value="-100"/>
                <iidm:shuntLinearModel bPerSection="-0.00062499998603016138" maximumSectionCount="1"/>
            </iidm:shunt>
        </iidm:voltageLevel>
        <iidm:voltageLevel id="B12___20" nominalV="20" highVoltageLimit="21" topologyKind="BUS_BREAKER">
            <iidm:busBreakerTopology>
                <iidm:bus id="B12___21" v="20.210253772225521" angle="55.808243047351056"/>
            </iidm:busBreakerTopology>
            <iidm:load id="12_1" loadType="UNDEFINED" p0="300.00201416015625" q0="83.801200866699219" bus="B12___21" connectableBus="B12___21" p="303.91413750909868" q="86.001040821026564"/>
        </iidm:voltageLevel>
        <iidm:voltageLevel id="BG01__15" nominalV="15" highVoltageLimit="15.750001907348633" topologyKind="BUS_BREAKER">
            <iidm:busBreakerTopology>
                <iidm:bus id="BG01__11" v="16.227822214285318" angle="63.644855365511489"/>
            </iidm:busBreakerTopology>
            <iidm:generator id="g01" energySource="HYDRO" minP="0" maxP="9999" voltageRegulatorOn="true" targetP="600" targetV="16.025999069213867" targetQ="58.340000152587891" bus="BG01__11" connectableBus="BG01__11" p="-545.61054003783454" q="-50.745514981663135">
                <iidm:property name="genreCvg" value="AUTRE"/>
                <iidm:reactiveCapabilityCurve>
                    <iidm:point p="0" minQ="-800" maxQ="800"/>
                    <iidm:point p="9999" minQ="-800" maxQ="800"/>
                </iidm:reactiveCapabilityCurve>
            </iidm:generator>
        </iidm:voltageLevel>
        <iidm:voltageLevel id="BG10__15" nominalV="15" highVoltageLimit="15.750001907348633" topologyKind="BUS_BREAKER">
            <iidm:busBreakerTopology>
                <iidm:bus id="BG10__11" v="15.434000364879955" angle="62.365457008563773"/>
            </iidm:busBreakerTopology>
            <iidm:generator id="g10" energySource="HYDRO" minP="0" maxP="9999" voltageRegulatorOn="true" targetP="600" targetV="15.235500335693359" targetQ="255.70100402832031" bus="BG10__11" connectableBus="BG10__11" p="-545.83094958866627" q="-262.2716093987359">
                <iidm:property name="genreCvg" value="AUTRE"/>
                <iidm:reactiveCapabilityCurve>
                    <iidm:point p="0" minQ="-800" maxQ="800"/>
                    <iidm:point p="9999" minQ="-800" maxQ="800"/>
                </iidm:reactiveCapabilityCurve>
            </iidm:generator>
        </iidm:voltageLevel>
        <iidm:twoWindingsTransformer id="Tr1012-4012" r="0" x="1.3519998788833618" g="0" b="0" ratedU1="400" ratedU2="130" bus1="4012_401" connectableBus1="4012_401" voltageLevelId1="4012_400" bus2="1012_131" connectableBus2="1012_131" voltageLevelId2="1012_130" p1="-520.41188329446015" q1="183.05268367591117" p2="520.41188329445993" q2="-162.55946046880939">
            <iidm:ratioTapChanger lowTapPosition="0" tapPosition="0" loadTapChangingCapabilities="false">
                <iidm:step r="0" x="0" g="0" b="0" rho="1.0526316165924072"/>
                <iidm:step r="0" x="0" g="0" b="0" rho="1.0416667461395264"/>
                <iidm:step r="0" x="0" g="0" b="0" rho="1.0309277772903442"/>
                <iidm:step r="0" x="0" g="0" b="0" rho="1.0204081535339355"/>
                <iidm:step r="0" x="0" g="0" b="0" rho="1.0101009607315063"/>
                <iidm:step r="0" x="0" g="0" b="0" rho="1"/>
                <iidm:step r="0" x="0" g="0" b="0" rho="0.99009901285171509"/>
                <iidm:step r="0" x="0" g="0" b="0" rho="0.98039215803146362"/>
                <iidm:step r="0" x="0" g="0" b="0" rho="0.97087383270263672"/>
                <iidm:step r="0" x="0" g="0" b="0" rho="0.96153849363327026"/>
                <iidm:step r="0" x="0" g="0" b="0" rho="0.95238101482391357"/>
            </iidm:ratioTapChanger>
            <iidm:currentLimits1 permanentLimit="5551.43994140625"/>
            <iidm:currentLimits2 permanentLimit="5551.43994140625"/>
        </iidm:twoWindingsTransformer>
        <iidm:twoWindingsTransformer id="Tr1012-g1" r="0" x="0.042187508195638657" g="0" b="0" ratedU1="130" ratedU2="15" bus1="1012_131" connectableBus1="1012_131" voltageLevelId1="1012_130" bus2="BG01__11" connectableBus2="BG01__11" voltageLevelId2="BG01__15" p1="-545.61036380770508" q1="-2.6428400688951914" p2="545.61036380770508" q2="50.745514981662687">
            <iidm:ratioTapChanger lowTapPosition="0" tapPosition="5" loadTapChangingCapabilities="false">
                <iidm:step r="0" x="0" g="0" b="0" rho="1.0526316165924072"/>
                <iidm:step r="0" x="0" g="0" b="0" rho="1.0416667461395264"/>
                <iidm:step r="0" x="0" g="0" b="0" rho="1.0309277772903442"/>
                <iidm:step r="0" x="0" g="0" b="0" rho="1.0204081535339355"/>
                <iidm:step r="0" x="0" g="0" b="0" rho="1.0101009607315063"/>
                <iidm:step r="0" x="0" g="0" b="0" rho="1"/>
                <iidm:step r="0" x="0" g="0" b="0" rho="0.99009901285171509"/>
                <iidm:step r="0" x="0" g="0" b="0" rho="0.98039215803146362"/>
                <iidm:step r="0" x="0" g="0" b="0" rho="0.97087383270263672"/>
                <iidm:step r="0" x="0" g="0" b="0" rho="0.96153849363327026"/>
                <iidm:step r="0" x="0" g="0" b="0" rho="0.95238101482391357"/>
            </iidm:ratioTapChanger>
            <iidm:currentLimits1 permanentLimit="30791.998046875"/>
            <iidm:currentLimits2 permanentLimit="30791.998046875"/>
        </iidm:twoWindingsTransformer>
        <iidm:twoWindingsTransformer id="Tr12-1012" r="0" x="0.066666767001152039" g="0" b="0" ratedU1="130" ratedU2="20" bus1="1012_131" connectableBus1="1012_131" voltageLevelId1="1012_130" bus2="B12___21" connectableBus2="B12___21" voltageLevelId2="B12___20" p1="303.91409210891379" q1="102.28357596447077" p2="-303.91409210891413" q2="-86.001037950866376">
            <iidm:ratioTapChanger lowTapPosition="0" tapPosition="25" targetDeadband="0" loadTapChangingCapabilities="true" regulating="true" targetV="20">
                <iidm:terminalRef id="Tr12-1012" side="TWO"/>
                <iidm:step r="0" x="0" g="0" b="0" rho="1.25"/>
                <iidm:step r="0" x="0" g="0" b="0" rho="1.2345678806304932"/>
                <iidm:step r="0" x="0" g="0" b="0" rho="1.2195122241973877"/>
                <iidm:step r="0" x="0" g="0" b="0" rho="1.2048193216323853"/>
                <iidm:step r="0" x="0" g="0" b="0" rho="1.1904761791229248"/>
                <iidm:step r="0" x="0" g="0" b="0" rho="1.1764705181121826"/>
                <iidm:step r="0" x="0" g="0" b="0" rho="1.1627906560897827"/>
                <iidm:step r="0" x="0" g="0" b="0" rho="1.1494252681732178"/>
                <iidm:step r="0" x="0" g="0" b="0" rho="1.1363636255264282"/>
                <iidm:step r="0" x="0" g="0" b="0" rho="1.1235954761505127"/>
                <iidm:step r="0" x="0" g="0" b="0" rho="1.1111111640930176"/>
                <iidm:step r="0" x="0" g="0" b="0" rho="1.0989010334014893"/>
                <iidm:step r="0" x="0" g="0" b="0" rho="1.0869565010070801"/>
                <iidm:step r="0" x="0" g="0" b="0" rho="1.0752688646316528"/>
                <iidm:step r="0" x="0" g="0" b="0" rho="1.063829779624939"/>
                <iidm:step r="0" x="0" g="0" b="0" rho="1.0526316165924072"/>
                <iidm:step r="0" x="0" g="0" b="0" rho="1.0416667461395264"/>
                <iidm:step r="0" x="0" g="0" b="0" rho="1.0309277772903442"/>
                <iidm:step r="0" x="0" g="0" b="0" rho="1.0204081535339355"/>
                <iidm:step r="0" x="0" g="0" b="0" rho="1.0101009607315063"/>
                <iidm:step r="0" x="0" g="0" b="0" rho="1"/>
                <iidm:step r="0" x="0" g="0" b="0" rho="0.99009901285171509"/>
                <iidm:step r="0" x="0" g="0" b="0" rho="0.98039215803146362"/>
                <iidm:step r="0" x="0" g="0" b="0" rho="0.97087383270263672"/>
                <iidm:step r="0" x="0" g="0" b="0" rho="0.96153849363327026"/>
                <iidm:step r="0" x="0" g="0" b="0" rho="0.95238101482391357"/>
                <iidm:step r="0" x="0" g="0" b="0" rho="0.94339627027511597"/>
                <iidm:step r="0" x="0" g="0" b="0" rho="0.93457937240600586"/>
                <iidm:step r="0" x="0" g="0" b="0" rho="0.92592591047286987"/>
                <iidm:step r="0" x="0" g="0" b="0" rho="0.91743117570877075"/>
                <iidm:step r="0" x="0" g="0" b="0" rho="0.90909087657928467"/>
                <iidm:step r="0" x="0" g="0" b="0" rho="0.90090090036392212"/>
                <iidm:step r="0" x="0" g="0" b="0" rho="0.8928571343421936"/>
            </iidm:ratioTapChanger>
            <iidm:currentLimits1 permanentLimit="17320.5"/>
            <iidm:currentLimits2 permanentLimit="17320.5"/>
        </iidm:twoWindingsTransformer>
        <iidm:twoWindingsTransformer id="Tr4012-g10" r="0" x="0.04218750074505806" g="0" b="0" ratedU1="400" ratedU2="15" bus1="4012_401" connectableBus1="4012_401" voltageLevelId1="4012_400" bus2="BG10__11" connectableBus2="BG10__11" voltageLevelId2="BG10__15" p1="-545.83077122044892" q1="-197.32468759940946" p2="545.83077122044892" q2="262.27160939873556">
            <iidm:ratioTapChanger lowTapPosition="0" tapPosition="10" loadTapChangingCapabilities="false">
                <iidm:step r="0" x="0" g="0" b="0" rho="1.0526316165924072"/>
                <iidm:step r="0" x="0" g="0" b="0" rho="1.0416667461395264"/>
                <iidm:step r="0" x="0" g="0" b="0" rho="1.0309277772903442"/>
                <iidm:step r="0" x="0" g="0" b="0" rho="1.0204081535339355"/>
                <iidm:step r="0" x="0" g="0" b="0" rho="1.0101009607315063"/>
                <iidm:step r="0" x="0" g="0" b="0" rho="1"/>
                <iidm:step r="0" x="0" g="0" b="0" rho="0.99009901285171509"/>
                <iidm:step r="0" x="0" g="0" b="0" rho="0.98039215803146362"/>
                <iidm:step r="0" x="0" g="0" b="0" rho="0.97087383270263672"/>
                <iidm:step r="0" x="0" g="0" b="0" rho="0.96153849363327026"/>
                <iidm:step r="0" x="0" g="0" b="0" rho="0.95238101482391357"/>
            </iidm:ratioTapChanger>
            <iidm:currentLimits1 permanentLimit="30792"/>
            <iidm:currentLimits2 permanentLimit="30792"/>
        </iidm:twoWindingsTransformer>
    </iidm:substation>
    <iidm:substation id="_3dd84004-1feb-4d62-bf15-4ae3dcc30bc4" country="FR" tso="RTE">
        <iidm:voltageLevel id="1013_130" nominalV="130" highVoltageLimit="136.5" topologyKind="BUS_BREAKER">
            <iidm:busBreakerTopology>
                <iidm:bus id="1013_131" v="138.93198848282256" angle="62.324485215740054"/>
            </iidm:busBreakerTopology>
        </iidm:voltageLevel>
        <iidm:voltageLevel id="B13___20" nominalV="20" highVoltageLimit="21" topologyKind="BUS_BREAKER">
            <iidm:busBreakerTopology>
                <iidm:bus id="B13___21" v="20.177456638726248" angle="59.523468690928468"/>
            </iidm:busBreakerTopology>
            <iidm:load id="13_1" loadType="UNDEFINED" p0="100.00299835205078" q0="34.401699066162109" bus="B13___21" connectableBus="B13___21" p="101.32391602191335" q="35.316510189594005"/>
        </iidm:voltageLevel>
        <iidm:voltageLevel id="BG02__15" nominalV="15" highVoltageLimit="15.750001907348633" topologyKind="BUS_BREAKER">
            <iidm:busBreakerTopology>
                <iidm:bus id="BG02__11" v="16.043938813093398" angle="65.565783578071816"/>
            </iidm:busBreakerTopology>
            <iidm:generator id="g02" energySource="HYDRO" minP="0" maxP="9999" voltageRegulatorOn="true" targetP="300" targetV="15.847498893737793" targetQ="17.233400344848633" bus="BG02__11" connectableBus="BG02__11" p="-258.52551189853494" q="-11.115075171308664">
                <iidm:property name="genreCvg" value="AUTRE"/>
                <iidm:reactiveCapabilityCurve>
                    <iidm:point p="0" minQ="-600" maxQ="600"/>
                    <iidm:point p="9999" minQ="-600" maxQ="600"/>
                </iidm:reactiveCapabilityCurve>
            </iidm:generator>
        </iidm:voltageLevel>
        <iidm:twoWindingsTransformer id="Tr1013-g2" r="0" x="0.056250009685754776" g="0" b="0" ratedU1="130" ratedU2="15" bus1="1013_131" connectableBus1="1013_131" voltageLevelId1="1013_130" bus2="BG02__11" connectableBus2="BG02__11" voltageLevelId2="BG02__15" p1="-258.52542455406399" q1="3.5171096325298024" p2="258.52542455406399" q2="11.115075171308675">
            <iidm:ratioTapChanger lowTapPosition="0" tapPosition="5" loadTapChangingCapabilities="false">
                <iidm:step r="0" x="0" g="0" b="0" rho="1.0526316165924072"/>
                <iidm:step r="0" x="0" g="0" b="0" rho="1.0416667461395264"/>
                <iidm:step r="0" x="0" g="0" b="0" rho="1.0309277772903442"/>
                <iidm:step r="0" x="0" g="0" b="0" rho="1.0204081535339355"/>
                <iidm:step r="0" x="0" g="0" b="0" rho="1.0101009607315063"/>
                <iidm:step r="0" x="0" g="0" b="0" rho="1"/>
                <iidm:step r="0" x="0" g="0" b="0" rho="0.99009901285171509"/>
                <iidm:step r="0" x="0" g="0" b="0" rho="0.98039215803146362"/>
                <iidm:step r="0" x="0" g="0" b="0" rho="0.97087383270263672"/>
                <iidm:step r="0" x="0" g="0" b="0" rho="0.96153849363327026"/>
                <iidm:step r="0" x="0" g="0" b="0" rho="0.95238101482391357"/>
            </iidm:ratioTapChanger>
            <iidm:currentLimits1 permanentLimit="23094"/>
            <iidm:currentLimits2 permanentLimit="23094"/>
        </iidm:twoWindingsTransformer>
        <iidm:twoWindingsTransformer id="Tr13-1013" r="0" x="0.20000006258487701" g="0" b="0" ratedU1="130" ratedU2="20" bus1="1013_131" connectableBus1="1013_131" voltageLevelId1="1013_130" bus2="B13___21" connectableBus2="B13___21" voltageLevelId2="B13___20" p1="101.32389982371706" q1="40.972588977227971" p2="-101.32389982371686" q2="-35.316509109376071">
            <iidm:ratioTapChanger lowTapPosition="0" tapPosition="24" targetDeadband="0" loadTapChangingCapabilities="true" regulating="true" targetV="20">
                <iidm:terminalRef id="Tr13-1013" side="TWO"/>
                <iidm:step r="0" x="0" g="0" b="0" rho="1.25"/>
                <iidm:step r="0" x="0" g="0" b="0" rho="1.2345678806304932"/>
                <iidm:step r="0" x="0" g="0" b="0" rho="1.2195122241973877"/>
                <iidm:step r="0" x="0" g="0" b="0" rho="1.2048193216323853"/>
                <iidm:step r="0" x="0" g="0" b="0" rho="1.1904761791229248"/>
                <iidm:step r="0" x="0" g="0" b="0" rho="1.1764705181121826"/>
                <iidm:step r="0" x="0" g="0" b="0" rho="1.1627906560897827"/>
                <iidm:step r="0" x="0" g="0" b="0" rho="1.1494252681732178"/>
                <iidm:step r="0" x="0" g="0" b="0" rho="1.1363636255264282"/>
                <iidm:step r="0" x="0" g="0" b="0" rho="1.1235954761505127"/>
                <iidm:step r="0" x="0" g="0" b="0" rho="1.1111111640930176"/>
                <iidm:step r="0" x="0" g="0" b="0" rho="1.0989010334014893"/>
                <iidm:step r="0" x="0" g="0" b="0" rho="1.0869565010070801"/>
                <iidm:step r="0" x="0" g="0" b="0" rho="1.0752688646316528"/>
                <iidm:step r="0" x="0" g="0" b="0" rho="1.063829779624939"/>
                <iidm:step r="0" x="0" g="0" b="0" rho="1.0526316165924072"/>
                <iidm:step r="0" x="0" g="0" b="0" rho="1.0416667461395264"/>
                <iidm:step r="0" x="0" g="0" b="0" rho="1.0309277772903442"/>
                <iidm:step r="0" x="0" g="0" b="0" rho="1.0204081535339355"/>
                <iidm:step r="0" x="0" g="0" b="0" rho="1.0101009607315063"/>
                <iidm:step r="0" x="0" g="0" b="0" rho="1"/>
                <iidm:step r="0" x="0" g="0" b="0" rho="0.99009901285171509"/>
                <iidm:step r="0" x="0" g="0" b="0" rho="0.98039215803146362"/>
                <iidm:step r="0" x="0" g="0" b="0" rho="0.97087383270263672"/>
                <iidm:step r="0" x="0" g="0" b="0" rho="0.96153849363327026"/>
                <iidm:step r="0" x="0" g="0" b="0" rho="0.95238101482391357"/>
                <iidm:step r="0" x="0" g="0" b="0" rho="0.94339627027511597"/>
                <iidm:step r="0" x="0" g="0" b="0" rho="0.93457937240600586"/>
                <iidm:step r="0" x="0" g="0" b="0" rho="0.92592591047286987"/>
                <iidm:step r="0" x="0" g="0" b="0" rho="0.91743117570877075"/>
                <iidm:step r="0" x="0" g="0" b="0" rho="0.90909087657928467"/>
                <iidm:step r="0" x="0" g="0" b="0" rho="0.90090090036392212"/>
                <iidm:step r="0" x="0" g="0" b="0" rho="0.8928571343421936"/>
            </iidm:ratioTapChanger>
            <iidm:currentLimits1 permanentLimit="5773.5"/>
            <iidm:currentLimits2 permanentLimit="5773.5"/>
        </iidm:twoWindingsTransformer>
    </iidm:substation>
    <iidm:substation id="_6b684b57-105e-4777-b95c-3f07617803dd" country="FR" tso="RTE">
        <iidm:voltageLevel id="1014_130" nominalV="130" highVoltageLimit="136.5" topologyKind="BUS_BREAKER">
            <iidm:busBreakerTopology>
                <iidm:bus id="1014_131" v="139.74936557790582" angle="65.053536724431481"/>
            </iidm:busBreakerTopology>
        </iidm:voltageLevel>
        <iidm:voltageLevel id="BG03__15" nominalV="15" highVoltageLimit="15.750001907348633" topologyKind="BUS_BREAKER">
            <iidm:busBreakerTopology>
                <iidm:bus id="BG03__11" v="16.091110467815525" angle="70.413429738657086"/>
            </iidm:busBreakerTopology>
            <iidm:generator id="g03" energySource="HYDRO" minP="0" maxP="9999" voltageRegulatorOn="true" targetP="550" targetV="15.892499923706055" targetQ="20.913200378417969" bus="BG03__11" connectableBus="BG03__11" p="-502.69867788611344" q="-12.244420829855329">
                <iidm:property name="genreCvg" value="AUTRE"/>
                <iidm:reactiveCapabilityCurve>
                    <iidm:point p="0" minQ="-700" maxQ="700"/>
                    <iidm:point p="9999" minQ="-700" maxQ="700"/>
                </iidm:reactiveCapabilityCurve>
            </iidm:generator>
        </iidm:voltageLevel>
        <iidm:twoWindingsTransformer id="Tr1014-g3" r="0" x="0.048214320093393326" g="0" b="0" ratedU1="130" ratedU2="15" bus1="1014_131" connectableBus1="1014_131" voltageLevelId1="1014_130" bus2="BG03__11" connectableBus2="BG03__11" voltageLevelId2="BG03__15" p1="-502.69850421999359" q1="34.839951236382952" p2="502.69850421999348" q2="12.244420829855551">
            <iidm:ratioTapChanger lowTapPosition="0" tapPosition="5" loadTapChangingCapabilities="false">
                <iidm:step r="0" x="0" g="0" b="0" rho="1.0526316165924072"/>
                <iidm:step r="0" x="0" g="0" b="0" rho="1.0416667461395264"/>
                <iidm:step r="0" x="0" g="0" b="0" rho="1.0309277772903442"/>
                <iidm:step r="0" x="0" g="0" b="0" rho="1.0204081535339355"/>
                <iidm:step r="0" x="0" g="0" b="0" rho="1.0101009607315063"/>
                <iidm:step r="0" x="0" g="0" b="0" rho="1"/>
                <iidm:step r="0" x="0" g="0" b="0" rho="0.99009901285171509"/>
                <iidm:step r="0" x="0" g="0" b="0" rho="0.98039215803146362"/>
                <iidm:step r="0" x="0" g="0" b="0" rho="0.97087383270263672"/>
                <iidm:step r="0" x="0" g="0" b="0" rho="0.96153849363327026"/>
                <iidm:step r="0" x="0" g="0" b="0" rho="0.95238101482391357"/>
            </iidm:ratioTapChanger>
            <iidm:currentLimits1 permanentLimit="26943"/>
            <iidm:currentLimits2 permanentLimit="26943"/>
        </iidm:twoWindingsTransformer>
    </iidm:substation>
    <iidm:substation id="_aa90c941-14e3-4c16-8ed4-513a0206d631" country="FR" tso="RTE">
        <iidm:voltageLevel id="1021_130" nominalV="130" highVoltageLimit="136.5" topologyKind="BUS_BREAKER">
            <iidm:busBreakerTopology>
                <iidm:bus id="1021_131" v="137.15023949814972" angle="65.198533593950032"/>
            </iidm:busBreakerTopology>
        </iidm:voltageLevel>
        <iidm:voltageLevel id="BG04__15" nominalV="15" highVoltageLimit="15.750001907348633" topologyKind="BUS_BREAKER">
            <iidm:busBreakerTopology>
                <iidm:bus id="BG04__11" v="15.878969274530863" angle="69.808871391494549"/>
            </iidm:busBreakerTopology>
            <iidm:generator id="g04" energySource="HYDRO" minP="0" maxP="9999" voltageRegulatorOn="true" targetP="400" targetV="15.508500099182129" targetQ="30.375099182128906" bus="BG04__11" connectableBus="BG04__11" p="-359.07542416258656" q="-29.681733597422856">
                <iidm:property name="genreCvg" value="AUTRE"/>
                <iidm:reactiveCapabilityCurve>
                    <iidm:point p="0" minQ="-600" maxQ="600"/>
                    <iidm:point p="9999" minQ="-600" maxQ="600"/>
                </iidm:reactiveCapabilityCurve>
            </iidm:generator>
        </iidm:voltageLevel>
        <iidm:twoWindingsTransformer id="Tr1021-g4" r="0" x="0.056250009685754776" g="0" b="0" ratedU1="130" ratedU2="15" bus1="1021_131" connectableBus1="1021_131" voltageLevelId1="1021_130" bus2="BG04__11" connectableBus2="BG04__11" voltageLevelId2="BG04__15" p1="-359.07530857935063" q1="-0.72120502366754824" p2="359.07530857935063" q2="29.681733597422834">
            <iidm:ratioTapChanger lowTapPosition="0" tapPosition="5" loadTapChangingCapabilities="false">
                <iidm:step r="0" x="0" g="0" b="0" rho="1.0526316165924072"/>
                <iidm:step r="0" x="0" g="0" b="0" rho="1.0416667461395264"/>
                <iidm:step r="0" x="0" g="0" b="0" rho="1.0309277772903442"/>
                <iidm:step r="0" x="0" g="0" b="0" rho="1.0204081535339355"/>
                <iidm:step r="0" x="0" g="0" b="0" rho="1.0101009607315063"/>
                <iidm:step r="0" x="0" g="0" b="0" rho="1"/>
                <iidm:step r="0" x="0" g="0" b="0" rho="0.99009901285171509"/>
                <iidm:step r="0" x="0" g="0" b="0" rho="0.98039215803146362"/>
                <iidm:step r="0" x="0" g="0" b="0" rho="0.97087383270263672"/>
                <iidm:step r="0" x="0" g="0" b="0" rho="0.96153849363327026"/>
                <iidm:step r="0" x="0" g="0" b="0" rho="0.95238101482391357"/>
            </iidm:ratioTapChanger>
            <iidm:currentLimits1 permanentLimit="23094"/>
            <iidm:currentLimits2 permanentLimit="23094"/>
        </iidm:twoWindingsTransformer>
    </iidm:substation>
    <iidm:substation id="_324bf35a-84bb-4d14-b005-bbaaef147928" country="FR" tso="RTE">
        <iidm:voltageLevel id="1022_130" nominalV="130" highVoltageLimit="136.5" topologyKind="BUS_BREAKER">
            <iidm:busBreakerTopology>
                <iidm:bus id="1022_131" v="137.30798118886514" angle="46.433384325509486"/>
            </iidm:busBreakerTopology>
            <iidm:shunt id="1022-Cap" sectionCount="1" voltageRegulatorOn="false" bus="1022_131" connectableBus="1022_131" q="-55.779532378648412">
                <iidm:property name="qMax" value="50"/>
                <iidm:shuntLinearModel bPerSection="0.002958579920232296" maximumSectionCount="1"/>
            </iidm:shunt>
        </iidm:voltageLevel>
        <iidm:voltageLevel id="4022_400" nominalV="400" highVoltageLimit="420" topologyKind="BUS_BREAKER">
            <iidm:busBreakerTopology>
                <iidm:bus id="4022_401" v="397.36934403421185" angle="45.019170865340705"/>
            </iidm:busBreakerTopology>
        </iidm:voltageLevel>
        <iidm:voltageLevel id="B22___20" nominalV="20" highVoltageLimit="21" topologyKind="BUS_BREAKER">
            <iidm:busBreakerTopology>
                <iidm:bus id="B22___21" v="20.800721917510842" angle="43.706873419761493"/>
            </iidm:busBreakerTopology>
            <iidm:load id="22_1" loadType="UNDEFINED" p0="280.01199340820312" q0="79.90679931640625" bus="B22___21" connectableBus="B22___21" p="292.62338718750959" q="87.266696249266559"/>
        </iidm:voltageLevel>
        <iidm:voltageLevel id="BG05__15" nominalV="15" highVoltageLimit="15.750001907348633" topologyKind="BUS_BREAKER">
            <iidm:busBreakerTopology>
                <iidm:bus id="BG05__11" v="15.645962459666077" angle="52.438955164050711"/>
            </iidm:busBreakerTopology>
            <iidm:generator id="g05" energySource="HYDRO" minP="0" maxP="9999" voltageRegulatorOn="true" targetP="200" targetV="15.440999984741211" targetQ="60.0614013671875" bus="BG05__11" connectableBus="BG05__11" p="-182.96122455762807" q="-74.171545769843021">
                <iidm:property name="genreCvg" value="AUTRE"/>
                <iidm:reactiveCapabilityCurve>
                    <iidm:point p="0" minQ="-250" maxQ="250"/>
                    <iidm:point p="9999" minQ="-250" maxQ="250"/>
                </iidm:reactiveCapabilityCurve>
            </iidm:generator>
        </iidm:voltageLevel>
        <iidm:twoWindingsTransformer id="Tr1022-4022" r="0" x="2.0280842781066895" g="0" b="0" ratedU1="400" ratedU2="130" bus1="4022_401" connectableBus1="4022_401" voltageLevelId1="4022_400" bus2="1022_131" connectableBus2="1022_131" voltageLevelId2="1022_130" p1="-232.03463200526517" q1="109.51854314822218" p2="232.03463200526608" q2="-102.59466880143826">
            <iidm:ratioTapChanger lowTapPosition="0" tapPosition="3" loadTapChangingCapabilities="false">
                <iidm:step r="0" x="0" g="0" b="0" rho="1.1111111640930176"/>
                <iidm:step r="0" x="0" g="0" b="0" rho="1.0989010334014893"/>
                <iidm:step r="0" x="0" g="0" b="0" rho="1.0869565010070801"/>
                <iidm:step r="0" x="0" g="0" b="0" rho="1.0752688646316528"/>
                <iidm:step r="0" x="0" g="0" b="0" rho="1.063829779624939"/>
                <iidm:step r="0" x="0" g="0" b="0" rho="1.0526316165924072"/>
                <iidm:step r="0" x="0" g="0" b="0" rho="1.0416667461395264"/>
                <iidm:step r="0" x="0" g="0" b="0" rho="1.0309277772903442"/>
                <iidm:step r="0" x="0" g="0" b="0" rho="1.0204081535339355"/>
                <iidm:step r="0" x="0" g="0" b="0" rho="1.0101009607315063"/>
                <iidm:step r="0" x="0" g="0" b="0" rho="1"/>
                <iidm:step r="0" x="0" g="0" b="0" rho="0.99009901285171509"/>
                <iidm:step r="0" x="0" g="0" b="0" rho="0.98039215803146362"/>
                <iidm:step r="0" x="0" g="0" b="0" rho="0.97087383270263672"/>
                <iidm:step r="0" x="0" g="0" b="0" rho="0.96153849363327026"/>
                <iidm:step r="0" x="0" g="0" b="0" rho="0.95238101482391357"/>
                <iidm:step r="0" x="0" g="0" b="0" rho="0.94339627027511597"/>
                <iidm:step r="0" x="0" g="0" b="0" rho="0.93457937240600586"/>
                <iidm:step r="0" x="0" g="0" b="0" rho="0.92592591047286987"/>
                <iidm:step r="0" x="0" g="0" b="0" rho="0.91743117570877075"/>
                <iidm:step r="0" x="0" g="0" b="0" rho="0.90909087657928467"/>
            </iidm:ratioTapChanger>
            <iidm:currentLimits1 permanentLimit="3700.820068359375"/>
            <iidm:currentLimits2 permanentLimit="3700.820068359375"/>
        </iidm:twoWindingsTransformer>
        <iidm:twoWindingsTransformer id="Tr1022-g5" r="0" x="0.13500003516674042" g="0" b="0" ratedU1="130" ratedU2="15" bus1="1022_131" connectableBus1="1022_131" voltageLevelId1="1022_130" bus2="BG05__11" connectableBus2="BG05__11" voltageLevelId2="BG05__15" p1="-182.96118052449395" q1="-52.676966920019908" p2="182.96118052449407" q2="74.171545769842965">
            <iidm:ratioTapChanger lowTapPosition="0" tapPosition="10" loadTapChangingCapabilities="false">
                <iidm:step r="0" x="0" g="0" b="0" rho="1.0526316165924072"/>
                <iidm:step r="0" x="0" g="0" b="0" rho="1.0416667461395264"/>
                <iidm:step r="0" x="0" g="0" b="0" rho="1.0309277772903442"/>
                <iidm:step r="0" x="0" g="0" b="0" rho="1.0204081535339355"/>
                <iidm:step r="0" x="0" g="0" b="0" rho="1.0101009607315063"/>
                <iidm:step r="0" x="0" g="0" b="0" rho="1"/>
                <iidm:step r="0" x="0" g="0" b="0" rho="0.99009901285171509"/>
                <iidm:step r="0" x="0" g="0" b="0" rho="0.98039215803146362"/>
                <iidm:step r="0" x="0" g="0" b="0" rho="0.97087383270263672"/>
                <iidm:step r="0" x="0" g="0" b="0" rho="0.96153849363327026"/>
                <iidm:step r="0" x="0" g="0" b="0" rho="0.95238101482391357"/>
            </iidm:ratioTapChanger>
            <iidm:currentLimits1 permanentLimit="9622.5"/>
            <iidm:currentLimits2 permanentLimit="9622.5"/>
        </iidm:twoWindingsTransformer>
        <iidm:twoWindingsTransformer id="Tr22-1022" r="0" x="0.071428664028644562" g="0" b="0" ratedU1="130" ratedU2="20" bus1="1022_131" connectableBus1="1022_131" voltageLevelId1="1022_130" bus2="B22___21" connectableBus2="B22___21" voltageLevelId2="B22___20" p1="292.62335914334182" q1="102.66015197720955" p2="-292.62335914334182" q2="-87.266694699809904">
            <iidm:ratioTapChanger lowTapPosition="0" tapPosition="20" targetDeadband="0" loadTapChangingCapabilities="true" regulating="true" targetV="20">
                <iidm:terminalRef id="Tr22-1022" side="TWO"/>
                <iidm:step r="0" x="0" g="0" b="0" rho="1.25"/>
                <iidm:step r="0" x="0" g="0" b="0" rho="1.2345678806304932"/>
                <iidm:step r="0" x="0" g="0" b="0" rho="1.2195122241973877"/>
                <iidm:step r="0" x="0" g="0" b="0" rho="1.2048193216323853"/>
                <iidm:step r="0" x="0" g="0" b="0" rho="1.1904761791229248"/>
                <iidm:step r="0" x="0" g="0" b="0" rho="1.1764705181121826"/>
                <iidm:step r="0" x="0" g="0" b="0" rho="1.1627906560897827"/>
                <iidm:step r="0" x="0" g="0" b="0" rho="1.1494252681732178"/>
                <iidm:step r="0" x="0" g="0" b="0" rho="1.1363636255264282"/>
                <iidm:step r="0" x="0" g="0" b="0" rho="1.1235954761505127"/>
                <iidm:step r="0" x="0" g="0" b="0" rho="1.1111111640930176"/>
                <iidm:step r="0" x="0" g="0" b="0" rho="1.0989010334014893"/>
                <iidm:step r="0" x="0" g="0" b="0" rho="1.0869565010070801"/>
                <iidm:step r="0" x="0" g="0" b="0" rho="1.0752688646316528"/>
                <iidm:step r="0" x="0" g="0" b="0" rho="1.063829779624939"/>
                <iidm:step r="0" x="0" g="0" b="0" rho="1.0526316165924072"/>
                <iidm:step r="0" x="0" g="0" b="0" rho="1.0416667461395264"/>
                <iidm:step r="0" x="0" g="0" b="0" rho="1.0309277772903442"/>
                <iidm:step r="0" x="0" g="0" b="0" rho="1.0204081535339355"/>
                <iidm:step r="0" x="0" g="0" b="0" rho="1.0101009607315063"/>
                <iidm:step r="0" x="0" g="0" b="0" rho="1"/>
                <iidm:step r="0" x="0" g="0" b="0" rho="0.99009901285171509"/>
                <iidm:step r="0" x="0" g="0" b="0" rho="0.98039215803146362"/>
                <iidm:step r="0" x="0" g="0" b="0" rho="0.97087383270263672"/>
                <iidm:step r="0" x="0" g="0" b="0" rho="0.96153849363327026"/>
                <iidm:step r="0" x="0" g="0" b="0" rho="0.95238101482391357"/>
                <iidm:step r="0" x="0" g="0" b="0" rho="0.94339627027511597"/>
                <iidm:step r="0" x="0" g="0" b="0" rho="0.93457937240600586"/>
                <iidm:step r="0" x="0" g="0" b="0" rho="0.92592591047286987"/>
                <iidm:step r="0" x="0" g="0" b="0" rho="0.91743117570877075"/>
                <iidm:step r="0" x="0" g="0" b="0" rho="0.90909087657928467"/>
                <iidm:step r="0" x="0" g="0" b="0" rho="0.90090090036392212"/>
                <iidm:step r="0" x="0" g="0" b="0" rho="0.8928571343421936"/>
            </iidm:ratioTapChanger>
            <iidm:currentLimits1 permanentLimit="16165.7998046875"/>
            <iidm:currentLimits2 permanentLimit="16165.7998046875"/>
        </iidm:twoWindingsTransformer>
    </iidm:substation>
    <iidm:substation id="_22d093c3-f6da-43b4-9b8d-c13a0e2906eb" country="FR" tso="RTE">
        <iidm:voltageLevel id="1041_130" nominalV="130" highVoltageLimit="136.5" topologyKind="BUS_BREAKER">
            <iidm:busBreakerTopology>
                <iidm:bus id="1041_131" v="90.615523445536141" angle="-27.849035963346424"/>
            </iidm:busBreakerTopology>
            <iidm:shunt id="1041-Cap" sectionCount="1" voltageRegulatorOn="false" bus="1041_131" connectableBus="1041_131" q="-121.46706676515061">
                <iidm:property name="qMax" value="250"/>
                <iidm:shuntLinearModel bPerSection="0.014792900532484055" maximumSectionCount="1"/>
            </iidm:shunt>
        </iidm:voltageLevel>
        <iidm:voltageLevel id="B01___20" nominalV="20" highVoltageLimit="21" topologyKind="BUS_BREAKER">
            <iidm:busBreakerTopology>
                <iidm:bus id="B01___21" v="16.170252568712698" angle="-31.348647788938887"/>
            </iidm:busBreakerTopology>
            <iidm:load id="01_1" loadType="UNDEFINED" p0="600" q0="148.19999694824219" bus="B01___21" connectableBus="B01___21" p="485.66471940583017" q="97.099905100268927"/>
        </iidm:voltageLevel>
        <iidm:twoWindingsTransformer id="Tr1-1041" r="0" x="0.03333326056599617" g="0" b="0" ratedU1="130" ratedU2="20" bus1="1041_131" connectableBus1="1041_131" voltageLevelId1="1041_130" bus2="B01___21" connectableBus2="B01___21" voltageLevelId2="B01___20" p1="485.66462479857677" q1="128.37102793800287" p2="-485.66462479857597" q2="-97.100211332113304">
            <iidm:ratioTapChanger lowTapPosition="0" tapPosition="5" targetDeadband="0" loadTapChangingCapabilities="true" regulating="true" targetV="20">
                <iidm:terminalRef id="Tr1-1041" side="TWO"/>
                <iidm:step r="0" x="0" g="0" b="0" rho="1.25"/>
                <iidm:step r="0" x="0" g="0" b="0" rho="1.2345678806304932"/>
                <iidm:step r="0" x="0" g="0" b="0" rho="1.2195122241973877"/>
                <iidm:step r="0" x="0" g="0" b="0" rho="1.2048193216323853"/>
                <iidm:step r="0" x="0" g="0" b="0" rho="1.1904761791229248"/>
                <iidm:step r="0" x="0" g="0" b="0" rho="1.1764705181121826"/>
                <iidm:step r="0" x="0" g="0" b="0" rho="1.1627906560897827"/>
                <iidm:step r="0" x="0" g="0" b="0" rho="1.1494252681732178"/>
                <iidm:step r="0" x="0" g="0" b="0" rho="1.1363636255264282"/>
                <iidm:step r="0" x="0" g="0" b="0" rho="1.1235954761505127"/>
                <iidm:step r="0" x="0" g="0" b="0" rho="1.1111111640930176"/>
                <iidm:step r="0" x="0" g="0" b="0" rho="1.0989010334014893"/>
                <iidm:step r="0" x="0" g="0" b="0" rho="1.0869565010070801"/>
                <iidm:step r="0" x="0" g="0" b="0" rho="1.0752688646316528"/>
                <iidm:step r="0" x="0" g="0" b="0" rho="1.063829779624939"/>
                <iidm:step r="0" x="0" g="0" b="0" rho="1.0526316165924072"/>
                <iidm:step r="0" x="0" g="0" b="0" rho="1.0416667461395264"/>
                <iidm:step r="0" x="0" g="0" b="0" rho="1.0309277772903442"/>
                <iidm:step r="0" x="0" g="0" b="0" rho="1.0204081535339355"/>
                <iidm:step r="0" x="0" g="0" b="0" rho="1.0101009607315063"/>
                <iidm:step r="0" x="0" g="0" b="0" rho="1"/>
                <iidm:step r="0" x="0" g="0" b="0" rho="0.99009901285171509"/>
                <iidm:step r="0" x="0" g="0" b="0" rho="0.98039215803146362"/>
                <iidm:step r="0" x="0" g="0" b="0" rho="0.97087383270263672"/>
                <iidm:step r="0" x="0" g="0" b="0" rho="0.96153849363327026"/>
                <iidm:step r="0" x="0" g="0" b="0" rho="0.95238101482391357"/>
                <iidm:step r="0" x="0" g="0" b="0" rho="0.94339627027511597"/>
                <iidm:step r="0" x="0" g="0" b="0" rho="0.93457937240600586"/>
                <iidm:step r="0" x="0" g="0" b="0" rho="0.92592591047286987"/>
                <iidm:step r="0" x="0" g="0" b="0" rho="0.91743117570877075"/>
                <iidm:step r="0" x="0" g="0" b="0" rho="0.90909087657928467"/>
                <iidm:step r="0" x="0" g="0" b="0" rho="0.90090090036392212"/>
                <iidm:step r="0" x="0" g="0" b="0" rho="0.8928571343421936"/>
            </iidm:ratioTapChanger>
            <iidm:currentLimits1 permanentLimit="34641"/>
            <iidm:currentLimits2 permanentLimit="34641"/>
        </iidm:twoWindingsTransformer>
    </iidm:substation>
    <iidm:substation id="_1a6fe4b6-a0fc-47fa-8946-62398ab9ae75" country="FR" tso="RTE">
        <iidm:voltageLevel id="1042_130" nominalV="130" highVoltageLimit="136.5" topologyKind="BUS_BREAKER">
            <iidm:busBreakerTopology>
                <iidm:bus id="1042_131" v="70.600103659638023" angle="7.3123345893345828"/>
            </iidm:busBreakerTopology>
        </iidm:voltageLevel>
        <iidm:voltageLevel id="B02___20" nominalV="20" highVoltageLimit="21" topologyKind="BUS_BREAKER">
            <iidm:busBreakerTopology>
                <iidm:bus id="B02___21" v="11.491633929222761" angle="1.9142645950801387"/>
            </iidm:busBreakerTopology>
            <iidm:load id="02_1" loadType="UNDEFINED" p0="330.0260009765625" q0="71.011299133300781" bus="B02___21" connectableBus="B02___21" p="189.38893877174746" q="23.385161048257398"/>
        </iidm:voltageLevel>
        <iidm:voltageLevel id="BG06__15" nominalV="15" highVoltageLimit="15.750001907348633" topologyKind="BUS_BREAKER">
            <iidm:busBreakerTopology>
                <iidm:bus id="BG06__11" v="7.5871135131918832" angle="32.004915981254939"/>
            </iidm:busBreakerTopology>
            <iidm:generator id="g06" energySource="THERMAL" minP="0" maxP="9999" voltageRegulatorOn="true" targetP="360" targetV="15.126001358032227" targetQ="138.60000610351562" bus="BG06__11" connectableBus="BG06__11" p="-291.43557226471393" q="-48.400776959758232">
                <iidm:property name="genreCvg" value="AUTRE"/>
                <iidm:reactiveCapabilityCurve>
                    <iidm:point p="0" minQ="-400" maxQ="400"/>
                    <iidm:point p="9999" minQ="-400" maxQ="400"/>
                </iidm:reactiveCapabilityCurve>
            </iidm:generator>
        </iidm:voltageLevel>
        <iidm:twoWindingsTransformer id="Tr1042-g6" r="0" x="0.084375016391277313" g="0" b="0" ratedU1="130" ratedU2="15" bus1="1042_131" connectableBus1="1042_131" voltageLevelId1="1042_130" bus2="BG06__11" connectableBus2="BG06__11" voltageLevelId2="BG06__15" p1="-291.43557226471393" q1="79.526203340681462" p2="291.43557226471398" q2="48.400776959758282">
            <iidm:ratioTapChanger lowTapPosition="0" tapPosition="10" loadTapChangingCapabilities="false">
                <iidm:step r="0" x="0" g="0" b="0" rho="1.0526316165924072"/>
                <iidm:step r="0" x="0" g="0" b="0" rho="1.0416667461395264"/>
                <iidm:step r="0" x="0" g="0" b="0" rho="1.0309277772903442"/>
                <iidm:step r="0" x="0" g="0" b="0" rho="1.0204081535339355"/>
                <iidm:step r="0" x="0" g="0" b="0" rho="1.0101009607315063"/>
                <iidm:step r="0" x="0" g="0" b="0" rho="1"/>
                <iidm:step r="0" x="0" g="0" b="0" rho="0.99009901285171509"/>
                <iidm:step r="0" x="0" g="0" b="0" rho="0.98039215803146362"/>
                <iidm:step r="0" x="0" g="0" b="0" rho="0.97087383270263672"/>
                <iidm:step r="0" x="0" g="0" b="0" rho="0.96153849363327026"/>
                <iidm:step r="0" x="0" g="0" b="0" rho="0.95238101482391357"/>
            </iidm:ratioTapChanger>
            <iidm:currentLimits1 permanentLimit="15395.9990234375"/>
            <iidm:currentLimits2 permanentLimit="15395.9990234375"/>
        </iidm:twoWindingsTransformer>
        <iidm:twoWindingsTransformer id="Tr2-1042" r="0" x="0.066666767001152039" g="0" b="0" ratedU1="130" ratedU2="20" bus1="1042_131" connectableBus1="1042_131" voltageLevelId1="1042_130" bus2="B02___21" connectableBus2="B02___21" voltageLevelId2="B02___20" p1="189.3889526114996" q1="41.768082239281433" p2="-189.3889526114996" q2="-23.38466034449122">
            <iidm:ratioTapChanger lowTapPosition="0" tapPosition="13" targetDeadband="0" loadTapChangingCapabilities="true" regulating="true" targetV="20">
                <iidm:terminalRef id="Tr2-1042" side="TWO"/>
                <iidm:step r="0" x="0" g="0" b="0" rho="1.25"/>
                <iidm:step r="0" x="0" g="0" b="0" rho="1.2345678806304932"/>
                <iidm:step r="0" x="0" g="0" b="0" rho="1.2195122241973877"/>
                <iidm:step r="0" x="0" g="0" b="0" rho="1.2048193216323853"/>
                <iidm:step r="0" x="0" g="0" b="0" rho="1.1904761791229248"/>
                <iidm:step r="0" x="0" g="0" b="0" rho="1.1764705181121826"/>
                <iidm:step r="0" x="0" g="0" b="0" rho="1.1627906560897827"/>
                <iidm:step r="0" x="0" g="0" b="0" rho="1.1494252681732178"/>
                <iidm:step r="0" x="0" g="0" b="0" rho="1.1363636255264282"/>
                <iidm:step r="0" x="0" g="0" b="0" rho="1.1235954761505127"/>
                <iidm:step r="0" x="0" g="0" b="0" rho="1.1111111640930176"/>
                <iidm:step r="0" x="0" g="0" b="0" rho="1.0989010334014893"/>
                <iidm:step r="0" x="0" g="0" b="0" rho="1.0869565010070801"/>
                <iidm:step r="0" x="0" g="0" b="0" rho="1.0752688646316528"/>
                <iidm:step r="0" x="0" g="0" b="0" rho="1.063829779624939"/>
                <iidm:step r="0" x="0" g="0" b="0" rho="1.0526316165924072"/>
                <iidm:step r="0" x="0" g="0" b="0" rho="1.0416667461395264"/>
                <iidm:step r="0" x="0" g="0" b="0" rho="1.0309277772903442"/>
                <iidm:step r="0" x="0" g="0" b="0" rho="1.0204081535339355"/>
                <iidm:step r="0" x="0" g="0" b="0" rho="1.0101009607315063"/>
                <iidm:step r="0" x="0" g="0" b="0" rho="1"/>
                <iidm:step r="0" x="0" g="0" b="0" rho="0.99009901285171509"/>
                <iidm:step r="0" x="0" g="0" b="0" rho="0.98039215803146362"/>
                <iidm:step r="0" x="0" g="0" b="0" rho="0.97087383270263672"/>
                <iidm:step r="0" x="0" g="0" b="0" rho="0.96153849363327026"/>
                <iidm:step r="0" x="0" g="0" b="0" rho="0.95238101482391357"/>
                <iidm:step r="0" x="0" g="0" b="0" rho="0.94339627027511597"/>
                <iidm:step r="0" x="0" g="0" b="0" rho="0.93457937240600586"/>
                <iidm:step r="0" x="0" g="0" b="0" rho="0.92592591047286987"/>
                <iidm:step r="0" x="0" g="0" b="0" rho="0.91743117570877075"/>
                <iidm:step r="0" x="0" g="0" b="0" rho="0.90909087657928467"/>
                <iidm:step r="0" x="0" g="0" b="0" rho="0.90090090036392212"/>
                <iidm:step r="0" x="0" g="0" b="0" rho="0.8928571343421936"/>
            </iidm:ratioTapChanger>
            <iidm:currentLimits1 permanentLimit="17320.5"/>
            <iidm:currentLimits2 permanentLimit="17320.5"/>
        </iidm:twoWindingsTransformer>
    </iidm:substation>
    <iidm:substation id="_24b8bbc5-1f71-4d9f-a22f-2c1a9dc6b44b" country="FR" tso="RTE">
        <iidm:voltageLevel id="1043_130" nominalV="130" highVoltageLimit="136.5" topologyKind="BUS_BREAKER">
            <iidm:busBreakerTopology>
                <iidm:bus id="1043_131" v="93.505176853301805" angle="-19.431092245298785"/>
            </iidm:busBreakerTopology>
            <iidm:shunt id="1043-Cap" sectionCount="1" voltageRegulatorOn="false" bus="1043_131" connectableBus="1043_131" q="-103.46986701827956">
                <iidm:property name="qMax" value="200"/>
                <iidm:shuntLinearModel bPerSection="0.011834300123155117" maximumSectionCount="1"/>
            </iidm:shunt>
        </iidm:voltageLevel>
        <iidm:voltageLevel id="B03___20" nominalV="20" highVoltageLimit="21" topologyKind="BUS_BREAKER">
            <iidm:busBreakerTopology>
                <iidm:bus id="B03___21" v="16.014347363124127" angle="-23.406512055377227"/>
            </iidm:busBreakerTopology>
            <iidm:load id="03_1" loadType="UNDEFINED" p0="260" q0="83.842399597167969" bus="B03___21" connectableBus="B03___21" p="208.71749754400884" q="54.029969411809731"/>
        </iidm:voltageLevel>
        <iidm:voltageLevel id="BG07__15" nominalV="15" highVoltageLimit="15.750001907348633" topologyKind="BUS_BREAKER">
            <iidm:busBreakerTopology>
                <iidm:bus id="BG07__11" v="10.681897176772454" angle="-3.8766346131427922"/>
            </iidm:busBreakerTopology>
            <iidm:generator id="g07" energySource="THERMAL" minP="0" maxP="9999" voltageRegulatorOn="true" targetP="180" targetV="15.211499214172363" targetQ="60.400001525878906" bus="BG07__11" connectableBus="BG07__11" p="-174.4148045390277" q="-49.559218160850918">
                <iidm:property name="genreCvg" value="AUTRE"/>
                <iidm:reactiveCapabilityCurve>
                    <iidm:point p="0" minQ="-200" maxQ="200"/>
                    <iidm:point p="9999" minQ="-200" maxQ="200"/>
                </iidm:reactiveCapabilityCurve>
            </iidm:generator>
        </iidm:voltageLevel>
        <iidm:twoWindingsTransformer id="Tr1043-g7" r="0" x="0.16875003278255463" g="0" b="0" ratedU1="130" ratedU2="15" bus1="1043_131" connectableBus1="1043_131" voltageLevelId1="1043_130" bus2="BG07__11" connectableBus2="BG07__11" voltageLevelId2="BG07__15" p1="-174.41480453902764" q1="-0.93702910645957482" p2="174.41480453902764" q2="49.559218160850939">
            <iidm:ratioTapChanger lowTapPosition="0" tapPosition="10" loadTapChangingCapabilities="false">
                <iidm:step r="0" x="0" g="0" b="0" rho="1.0526316165924072"/>
                <iidm:step r="0" x="0" g="0" b="0" rho="1.0416667461395264"/>
                <iidm:step r="0" x="0" g="0" b="0" rho="1.0309277772903442"/>
                <iidm:step r="0" x="0" g="0" b="0" rho="1.0204081535339355"/>
                <iidm:step r="0" x="0" g="0" b="0" rho="1.0101009607315063"/>
                <iidm:step r="0" x="0" g="0" b="0" rho="1"/>
                <iidm:step r="0" x="0" g="0" b="0" rho="0.99009901285171509"/>
                <iidm:step r="0" x="0" g="0" b="0" rho="0.98039215803146362"/>
                <iidm:step r="0" x="0" g="0" b="0" rho="0.97087383270263672"/>
                <iidm:step r="0" x="0" g="0" b="0" rho="0.96153849363327026"/>
                <iidm:step r="0" x="0" g="0" b="0" rho="0.95238101482391357"/>
            </iidm:ratioTapChanger>
            <iidm:currentLimits1 permanentLimit="7697.99951171875"/>
            <iidm:currentLimits2 permanentLimit="7697.99951171875"/>
        </iidm:twoWindingsTransformer>
        <iidm:twoWindingsTransformer id="Tr3-1043" r="0" x="0.08695647120475769" g="0" b="0" ratedU1="130" ratedU2="20" bus1="1043_131" connectableBus1="1043_131" voltageLevelId1="1043_130" bus2="B03___21" connectableBus2="B03___21" voltageLevelId2="B03___20" p1="208.71747334873595" q1="69.790588215490871" p2="-208.71747334873581" q2="-54.030073484729002">
            <iidm:ratioTapChanger lowTapPosition="0" tapPosition="8" targetDeadband="0" loadTapChangingCapabilities="true" regulating="true" targetV="20">
                <iidm:terminalRef id="Tr3-1043" side="TWO"/>
                <iidm:step r="0" x="0" g="0" b="0" rho="1.25"/>
                <iidm:step r="0" x="0" g="0" b="0" rho="1.2345678806304932"/>
                <iidm:step r="0" x="0" g="0" b="0" rho="1.2195122241973877"/>
                <iidm:step r="0" x="0" g="0" b="0" rho="1.2048193216323853"/>
                <iidm:step r="0" x="0" g="0" b="0" rho="1.1904761791229248"/>
                <iidm:step r="0" x="0" g="0" b="0" rho="1.1764705181121826"/>
                <iidm:step r="0" x="0" g="0" b="0" rho="1.1627906560897827"/>
                <iidm:step r="0" x="0" g="0" b="0" rho="1.1494252681732178"/>
                <iidm:step r="0" x="0" g="0" b="0" rho="1.1363636255264282"/>
                <iidm:step r="0" x="0" g="0" b="0" rho="1.1235954761505127"/>
                <iidm:step r="0" x="0" g="0" b="0" rho="1.1111111640930176"/>
                <iidm:step r="0" x="0" g="0" b="0" rho="1.0989010334014893"/>
                <iidm:step r="0" x="0" g="0" b="0" rho="1.0869565010070801"/>
                <iidm:step r="0" x="0" g="0" b="0" rho="1.0752688646316528"/>
                <iidm:step r="0" x="0" g="0" b="0" rho="1.063829779624939"/>
                <iidm:step r="0" x="0" g="0" b="0" rho="1.0526316165924072"/>
                <iidm:step r="0" x="0" g="0" b="0" rho="1.0416667461395264"/>
                <iidm:step r="0" x="0" g="0" b="0" rho="1.0309277772903442"/>
                <iidm:step r="0" x="0" g="0" b="0" rho="1.0204081535339355"/>
                <iidm:step r="0" x="0" g="0" b="0" rho="1.0101009607315063"/>
                <iidm:step r="0" x="0" g="0" b="0" rho="1"/>
                <iidm:step r="0" x="0" g="0" b="0" rho="0.99009901285171509"/>
                <iidm:step r="0" x="0" g="0" b="0" rho="0.98039215803146362"/>
                <iidm:step r="0" x="0" g="0" b="0" rho="0.97087383270263672"/>
                <iidm:step r="0" x="0" g="0" b="0" rho="0.96153849363327026"/>
                <iidm:step r="0" x="0" g="0" b="0" rho="0.95238101482391357"/>
                <iidm:step r="0" x="0" g="0" b="0" rho="0.94339627027511597"/>
                <iidm:step r="0" x="0" g="0" b="0" rho="0.93457937240600586"/>
                <iidm:step r="0" x="0" g="0" b="0" rho="0.92592591047286987"/>
                <iidm:step r="0" x="0" g="0" b="0" rho="0.91743117570877075"/>
                <iidm:step r="0" x="0" g="0" b="0" rho="0.90909087657928467"/>
                <iidm:step r="0" x="0" g="0" b="0" rho="0.90090090036392212"/>
                <iidm:step r="0" x="0" g="0" b="0" rho="0.8928571343421936"/>
            </iidm:ratioTapChanger>
            <iidm:currentLimits1 permanentLimit="13279.0986328125"/>
            <iidm:currentLimits2 permanentLimit="13279.0986328125"/>
...